<?xml version="1.0" encoding="UTF-8" standalone="yes"?>
<template encoding-version="1.3">
    <description></description>
    <groupId>52bc3206-be26-36ce-9ebe-ae3cb352e32f</groupId>
    <name>02 Data Ingestion Generic Flows</name>
    <snippet>
        <connections>
            <id>043fcb25-4617-3d5c-0000-000000000000</id>
            <parentGroupId>2d7b7c0c-d83d-32c1-0000-000000000000</parentGroupId>
            <backPressureDataSizeThreshold>1 GB</backPressureDataSizeThreshold>
            <backPressureObjectThreshold>10000</backPressureObjectThreshold>
            <destination>
                <groupId>2d7b7c0c-d83d-32c1-0000-000000000000</groupId>
                <id>65d1d9cb-9de7-388c-0000-000000000000</id>
                <type>PROCESSOR</type>
            </destination>
            <flowFileExpiration>0 sec</flowFileExpiration>
            <labelIndex>1</labelIndex>
            <loadBalanceCompression>DO_NOT_COMPRESS</loadBalanceCompression>
            <loadBalancePartitionAttribute></loadBalancePartitionAttribute>
            <loadBalanceStatus>LOAD_BALANCE_NOT_CONFIGURED</loadBalanceStatus>
            <loadBalanceStrategy>DO_NOT_LOAD_BALANCE</loadBalanceStrategy>
            <name></name>
            <selectedRelationships>success</selectedRelationships>
            <source>
                <groupId>2d7b7c0c-d83d-32c1-0000-000000000000</groupId>
                <id>f96a93cb-a749-3190-0000-000000000000</id>
                <type>PROCESSOR</type>
            </source>
            <zIndex>0</zIndex>
        </connections>
        <connections>
            <id>046c64c7-9bf1-384e-0000-000000000000</id>
            <parentGroupId>2d7b7c0c-d83d-32c1-0000-000000000000</parentGroupId>
            <backPressureDataSizeThreshold>1 GB</backPressureDataSizeThreshold>
            <backPressureObjectThreshold>10000</backPressureObjectThreshold>
            <destination>
                <groupId>2d7b7c0c-d83d-32c1-0000-000000000000</groupId>
                <id>b3aade9a-f0b6-3e78-0000-000000000000</id>
                <type>PROCESSOR</type>
            </destination>
            <flowFileExpiration>0 sec</flowFileExpiration>
            <labelIndex>1</labelIndex>
            <loadBalanceCompression>DO_NOT_COMPRESS</loadBalanceCompression>
            <loadBalancePartitionAttribute></loadBalancePartitionAttribute>
            <loadBalanceStatus>LOAD_BALANCE_NOT_CONFIGURED</loadBalanceStatus>
            <loadBalanceStrategy>DO_NOT_LOAD_BALANCE</loadBalanceStrategy>
            <name></name>
            <selectedRelationships>success</selectedRelationships>
            <source>
                <groupId>2d7b7c0c-d83d-32c1-0000-000000000000</groupId>
                <id>c4b1161e-8ced-3dac-0000-000000000000</id>
                <type>PROCESSOR</type>
            </source>
            <zIndex>0</zIndex>
        </connections>
        <connections>
            <id>23bd13b8-caaf-31d5-0000-000000000000</id>
            <parentGroupId>2d7b7c0c-d83d-32c1-0000-000000000000</parentGroupId>
            <backPressureDataSizeThreshold>1 GB</backPressureDataSizeThreshold>
            <backPressureObjectThreshold>10000</backPressureObjectThreshold>
            <destination>
                <groupId>2d7b7c0c-d83d-32c1-0000-000000000000</groupId>
                <id>1a25f5d8-c68e-3841-0000-000000000000</id>
                <type>PROCESSOR</type>
            </destination>
            <flowFileExpiration>0 sec</flowFileExpiration>
            <labelIndex>1</labelIndex>
            <loadBalanceCompression>DO_NOT_COMPRESS</loadBalanceCompression>
            <loadBalancePartitionAttribute></loadBalancePartitionAttribute>
            <loadBalanceStatus>LOAD_BALANCE_NOT_CONFIGURED</loadBalanceStatus>
            <loadBalanceStrategy>DO_NOT_LOAD_BALANCE</loadBalanceStrategy>
            <name></name>
            <selectedRelationships>success</selectedRelationships>
            <source>
                <groupId>2d7b7c0c-d83d-32c1-0000-000000000000</groupId>
                <id>0aef03ac-1ed5-33f0-0000-000000000000</id>
                <type>PROCESSOR</type>
            </source>
            <zIndex>0</zIndex>
        </connections>
        <connections>
            <id>574f48ff-ed06-3bd5-0000-000000000000</id>
            <parentGroupId>2d7b7c0c-d83d-32c1-0000-000000000000</parentGroupId>
            <backPressureDataSizeThreshold>1 GB</backPressureDataSizeThreshold>
            <backPressureObjectThreshold>10000</backPressureObjectThreshold>
            <destination>
                <groupId>2d7b7c0c-d83d-32c1-0000-000000000000</groupId>
                <id>f96a93cb-a749-3190-0000-000000000000</id>
                <type>PROCESSOR</type>
            </destination>
            <flowFileExpiration>0 sec</flowFileExpiration>
            <labelIndex>1</labelIndex>
            <loadBalanceCompression>DO_NOT_COMPRESS</loadBalanceCompression>
            <loadBalancePartitionAttribute></loadBalancePartitionAttribute>
            <loadBalanceStatus>LOAD_BALANCE_NOT_CONFIGURED</loadBalanceStatus>
            <loadBalanceStrategy>DO_NOT_LOAD_BALANCE</loadBalanceStrategy>
            <name></name>
            <selectedRelationships>success</selectedRelationships>
            <source>
                <groupId>2d7b7c0c-d83d-32c1-0000-000000000000</groupId>
                <id>ca3ab6da-3cad-3afa-0000-000000000000</id>
                <type>PROCESSOR</type>
            </source>
            <zIndex>0</zIndex>
        </connections>
        <connections>
            <id>7f190d0b-3a2d-3d93-0000-000000000000</id>
            <parentGroupId>2d7b7c0c-d83d-32c1-0000-000000000000</parentGroupId>
            <backPressureDataSizeThreshold>1 GB</backPressureDataSizeThreshold>
            <backPressureObjectThreshold>10000</backPressureObjectThreshold>
            <destination>
                <groupId>2d7b7c0c-d83d-32c1-0000-000000000000</groupId>
                <id>af17cb4f-8aa1-350e-0000-000000000000</id>
                <type>PROCESSOR</type>
            </destination>
            <flowFileExpiration>0 sec</flowFileExpiration>
            <labelIndex>1</labelIndex>
            <loadBalanceCompression>DO_NOT_COMPRESS</loadBalanceCompression>
            <loadBalancePartitionAttribute></loadBalancePartitionAttribute>
            <loadBalanceStatus>LOAD_BALANCE_NOT_CONFIGURED</loadBalanceStatus>
            <loadBalanceStrategy>DO_NOT_LOAD_BALANCE</loadBalanceStrategy>
            <name></name>
            <selectedRelationships>success</selectedRelationships>
            <source>
                <groupId>2d7b7c0c-d83d-32c1-0000-000000000000</groupId>
                <id>c4b1161e-8ced-3dac-0000-000000000000</id>
                <type>PROCESSOR</type>
            </source>
            <zIndex>0</zIndex>
        </connections>
        <connections>
            <id>ba320ed4-6b2c-34c8-0000-000000000000</id>
            <parentGroupId>2d7b7c0c-d83d-32c1-0000-000000000000</parentGroupId>
            <backPressureDataSizeThreshold>1 GB</backPressureDataSizeThreshold>
            <backPressureObjectThreshold>10000</backPressureObjectThreshold>
            <destination>
                <groupId>2d7b7c0c-d83d-32c1-0000-000000000000</groupId>
                <id>d6c0b868-a919-3193-0000-000000000000</id>
                <type>PROCESSOR</type>
            </destination>
            <flowFileExpiration>0 sec</flowFileExpiration>
            <labelIndex>1</labelIndex>
            <loadBalanceCompression>DO_NOT_COMPRESS</loadBalanceCompression>
            <loadBalancePartitionAttribute></loadBalancePartitionAttribute>
            <loadBalanceStatus>LOAD_BALANCE_NOT_CONFIGURED</loadBalanceStatus>
            <loadBalanceStrategy>DO_NOT_LOAD_BALANCE</loadBalanceStrategy>
            <name></name>
            <selectedRelationships>success</selectedRelationships>
            <source>
                <groupId>2d7b7c0c-d83d-32c1-0000-000000000000</groupId>
                <id>1a25f5d8-c68e-3841-0000-000000000000</id>
                <type>PROCESSOR</type>
            </source>
            <zIndex>0</zIndex>
        </connections>
        <connections>
            <id>ca0c8249-475d-3aea-0000-000000000000</id>
            <parentGroupId>2d7b7c0c-d83d-32c1-0000-000000000000</parentGroupId>
            <backPressureDataSizeThreshold>1 GB</backPressureDataSizeThreshold>
            <backPressureObjectThreshold>10000</backPressureObjectThreshold>
            <destination>
                <groupId>2d7b7c0c-d83d-32c1-0000-000000000000</groupId>
                <id>6952175e-9c42-3865-0000-000000000000</id>
                <type>PROCESSOR</type>
            </destination>
            <flowFileExpiration>0 sec</flowFileExpiration>
            <labelIndex>1</labelIndex>
            <loadBalanceCompression>DO_NOT_COMPRESS</loadBalanceCompression>
            <loadBalancePartitionAttribute></loadBalancePartitionAttribute>
            <loadBalanceStatus>LOAD_BALANCE_NOT_CONFIGURED</loadBalanceStatus>
            <loadBalanceStrategy>DO_NOT_LOAD_BALANCE</loadBalanceStrategy>
            <name></name>
            <selectedRelationships>success</selectedRelationships>
            <source>
                <groupId>2d7b7c0c-d83d-32c1-0000-000000000000</groupId>
                <id>d6c0b868-a919-3193-0000-000000000000</id>
                <type>PROCESSOR</type>
            </source>
            <zIndex>0</zIndex>
        </connections>
        <connections>
            <id>f7079117-d0f7-35d6-0000-000000000000</id>
            <parentGroupId>2d7b7c0c-d83d-32c1-0000-000000000000</parentGroupId>
            <backPressureDataSizeThreshold>1 GB</backPressureDataSizeThreshold>
            <backPressureObjectThreshold>10000</backPressureObjectThreshold>
            <destination>
                <groupId>2d7b7c0c-d83d-32c1-0000-000000000000</groupId>
                <id>78dd8f9c-5ae7-3004-0000-000000000000</id>
                <type>PROCESSOR</type>
            </destination>
            <flowFileExpiration>0 sec</flowFileExpiration>
            <labelIndex>1</labelIndex>
            <loadBalanceCompression>DO_NOT_COMPRESS</loadBalanceCompression>
            <loadBalancePartitionAttribute></loadBalancePartitionAttribute>
            <loadBalanceStatus>LOAD_BALANCE_NOT_CONFIGURED</loadBalanceStatus>
            <loadBalanceStrategy>DO_NOT_LOAD_BALANCE</loadBalanceStrategy>
            <name></name>
            <selectedRelationships>success</selectedRelationships>
            <source>
                <groupId>2d7b7c0c-d83d-32c1-0000-000000000000</groupId>
                <id>65d1d9cb-9de7-388c-0000-000000000000</id>
                <type>PROCESSOR</type>
            </source>
            <zIndex>0</zIndex>
        </connections>
        <connections>
            <id>fcc0c5e1-635f-3fe7-0000-000000000000</id>
            <parentGroupId>2d7b7c0c-d83d-32c1-0000-000000000000</parentGroupId>
            <backPressureDataSizeThreshold>1 GB</backPressureDataSizeThreshold>
            <backPressureObjectThreshold>10000</backPressureObjectThreshold>
            <destination>
                <groupId>2d7b7c0c-d83d-32c1-0000-000000000000</groupId>
                <id>d1e9a8d8-7f76-37a1-0000-000000000000</id>
                <type>PROCESSOR</type>
            </destination>
            <flowFileExpiration>0 sec</flowFileExpiration>
            <labelIndex>1</labelIndex>
            <loadBalanceCompression>DO_NOT_COMPRESS</loadBalanceCompression>
            <loadBalancePartitionAttribute></loadBalancePartitionAttribute>
            <loadBalanceStatus>LOAD_BALANCE_NOT_CONFIGURED</loadBalanceStatus>
            <loadBalanceStrategy>DO_NOT_LOAD_BALANCE</loadBalanceStrategy>
            <name></name>
            <selectedRelationships>success</selectedRelationships>
            <source>
                <groupId>2d7b7c0c-d83d-32c1-0000-000000000000</groupId>
                <id>5897384d-80fb-3843-0000-000000000000</id>
                <type>PROCESSOR</type>
            </source>
            <zIndex>0</zIndex>
        </connections>
        <connections>
            <id>ff4f8435-344e-3551-0000-000000000000</id>
            <parentGroupId>2d7b7c0c-d83d-32c1-0000-000000000000</parentGroupId>
            <backPressureDataSizeThreshold>1 GB</backPressureDataSizeThreshold>
            <backPressureObjectThreshold>10000</backPressureObjectThreshold>
            <destination>
                <groupId>2d7b7c0c-d83d-32c1-0000-000000000000</groupId>
                <id>5897384d-80fb-3843-0000-000000000000</id>
                <type>PROCESSOR</type>
            </destination>
            <flowFileExpiration>0 sec</flowFileExpiration>
            <labelIndex>1</labelIndex>
            <loadBalanceCompression>DO_NOT_COMPRESS</loadBalanceCompression>
            <loadBalancePartitionAttribute></loadBalancePartitionAttribute>
            <loadBalanceStatus>LOAD_BALANCE_NOT_CONFIGURED</loadBalanceStatus>
            <loadBalanceStrategy>DO_NOT_LOAD_BALANCE</loadBalanceStrategy>
            <name></name>
            <selectedRelationships>success</selectedRelationships>
            <source>
                <groupId>2d7b7c0c-d83d-32c1-0000-000000000000</groupId>
                <id>588ca76d-3f94-3f35-0000-000000000000</id>
                <type>PROCESSOR</type>
            </source>
            <zIndex>0</zIndex>
        </connections>
        <processors>
            <id>0aef03ac-1ed5-33f0-0000-000000000000</id>
            <parentGroupId>2d7b7c0c-d83d-32c1-0000-000000000000</parentGroupId>
            <position>
                <x>0.0</x>
                <y>464.0</y>
            </position>
            <bundle>
                <artifact>nifi-standard-nar</artifact>
                <group>org.apache.nifi</group>
                <version>1.11.4</version>
            </bundle>
            <config>
                <bulletinLevel>WARN</bulletinLevel>
                <comments></comments>
                <concurrentlySchedulableTaskCount>1</concurrentlySchedulableTaskCount>
                <descriptors>
                    <entry>
                        <key>Input Directory</key>
                        <value>
                            <name>Input Directory</name>
                        </value>
                    </entry>
                    <entry>
                        <key>listing-strategy</key>
                        <value>
                            <name>listing-strategy</name>
                        </value>
                    </entry>
                    <entry>
                        <key>Recurse Subdirectories</key>
                        <value>
                            <name>Recurse Subdirectories</name>
                        </value>
                    </entry>
                    <entry>
                        <key>Input Directory Location</key>
                        <value>
                            <name>Input Directory Location</name>
                        </value>
                    </entry>
                    <entry>
                        <key>File Filter</key>
                        <value>
                            <name>File Filter</name>
                        </value>
                    </entry>
                    <entry>
                        <key>Path Filter</key>
                        <value>
                            <name>Path Filter</name>
                        </value>
                    </entry>
                    <entry>
                        <key>Include File Attributes</key>
                        <value>
                            <name>Include File Attributes</name>
                        </value>
                    </entry>
                    <entry>
                        <key>Minimum File Age</key>
                        <value>
                            <name>Minimum File Age</name>
                        </value>
                    </entry>
                    <entry>
                        <key>Maximum File Age</key>
                        <value>
                            <name>Maximum File Age</name>
                        </value>
                    </entry>
                    <entry>
                        <key>Minimum File Size</key>
                        <value>
                            <name>Minimum File Size</name>
                        </value>
                    </entry>
                    <entry>
                        <key>Maximum File Size</key>
                        <value>
                            <name>Maximum File Size</name>
                        </value>
                    </entry>
                    <entry>
                        <key>Ignore Hidden Files</key>
                        <value>
                            <name>Ignore Hidden Files</name>
                        </value>
                    </entry>
                    <entry>
                        <key>target-system-timestamp-precision</key>
                        <value>
                            <name>target-system-timestamp-precision</name>
                        </value>
                    </entry>
                    <entry>
                        <key>et-state-cache</key>
                        <value>
                            <identifiesControllerService>org.apache.nifi.distributed.cache.client.DistributedMapCacheClient</identifiesControllerService>
                            <name>et-state-cache</name>
                        </value>
                    </entry>
                    <entry>
                        <key>et-time-window</key>
                        <value>
                            <name>et-time-window</name>
                        </value>
                    </entry>
                    <entry>
                        <key>et-initial-listing-target</key>
                        <value>
                            <name>et-initial-listing-target</name>
                        </value>
                    </entry>
                    <entry>
                        <key>et-node-identifier</key>
                        <value>
                            <name>et-node-identifier</name>
                        </value>
                    </entry>
                    <entry>
                        <key>track-performance</key>
                        <value>
                            <name>track-performance</name>
                        </value>
                    </entry>
                    <entry>
                        <key>max-performance-metrics</key>
                        <value>
                            <name>max-performance-metrics</name>
                        </value>
                    </entry>
                    <entry>
                        <key>max-operation-time</key>
                        <value>
                            <name>max-operation-time</name>
                        </value>
                    </entry>
                    <entry>
                        <key>max-listing-time</key>
                        <value>
                            <name>max-listing-time</name>
                        </value>
                    </entry>
                </descriptors>
                <executionNode>ALL</executionNode>
                <lossTolerant>false</lossTolerant>
                <penaltyDuration>30 sec</penaltyDuration>
                <properties>
                    <entry>
                        <key>Input Directory</key>
                        <value>/data/retail_db</value>
                    </entry>
                    <entry>
                        <key>listing-strategy</key>
                        <value>timestamps</value>
                    </entry>
                    <entry>
                        <key>Recurse Subdirectories</key>
                        <value>true</value>
                    </entry>
                    <entry>
                        <key>Input Directory Location</key>
                        <value>Local</value>
                    </entry>
                    <entry>
                        <key>File Filter</key>
                        <value>part.*</value>
                    </entry>
                    <entry>
                        <key>Path Filter</key>
                    </entry>
                    <entry>
                        <key>Include File Attributes</key>
                        <value>true</value>
                    </entry>
                    <entry>
                        <key>Minimum File Age</key>
                        <value>600 sec</value>
                    </entry>
                    <entry>
                        <key>Maximum File Age</key>
                        <value>86400 sec</value>
                    </entry>
                    <entry>
                        <key>Minimum File Size</key>
                        <value>1 B</value>
                    </entry>
                    <entry>
                        <key>Maximum File Size</key>
                    </entry>
                    <entry>
                        <key>Ignore Hidden Files</key>
                        <value>true</value>
                    </entry>
                    <entry>
                        <key>target-system-timestamp-precision</key>
                        <value>auto-detect</value>
                    </entry>
                    <entry>
                        <key>et-state-cache</key>
                    </entry>
                    <entry>
                        <key>et-time-window</key>
                        <value>3 hours</value>
                    </entry>
                    <entry>
                        <key>et-initial-listing-target</key>
                        <value>all</value>
                    </entry>
                    <entry>
                        <key>et-node-identifier</key>
                        <value>${hostname()}</value>
                    </entry>
                    <entry>
                        <key>track-performance</key>
                        <value>false</value>
                    </entry>
                    <entry>
                        <key>max-performance-metrics</key>
                        <value>100000</value>
                    </entry>
                    <entry>
                        <key>max-operation-time</key>
                        <value>10 secs</value>
                    </entry>
                    <entry>
                        <key>max-listing-time</key>
                        <value>3 mins</value>
                    </entry>
                </properties>
                <runDurationMillis>0</runDurationMillis>
                <schedulingPeriod>0 sec</schedulingPeriod>
                <schedulingStrategy>TIMER_DRIVEN</schedulingStrategy>
                <yieldDuration>1 sec</yieldDuration>
            </config>
            <executionNodeRestricted>false</executionNodeRestricted>
            <name>ListFile</name>
            <relationships>
                <autoTerminate>false</autoTerminate>
                <name>success</name>
            </relationships>
            <state>STOPPED</state>
            <style/>
            <type>org.apache.nifi.processors.standard.ListFile</type>
        </processors>
        <processors>
            <id>1a25f5d8-c68e-3841-0000-000000000000</id>
            <parentGroupId>2d7b7c0c-d83d-32c1-0000-000000000000</parentGroupId>
            <position>
                <x>632.0</x>
                <y>464.0</y>
            </position>
            <bundle>
                <artifact>nifi-standard-nar</artifact>
                <group>org.apache.nifi</group>
                <version>1.11.4</version>
            </bundle>
            <config>
                <bulletinLevel>WARN</bulletinLevel>
                <comments></comments>
                <concurrentlySchedulableTaskCount>1</concurrentlySchedulableTaskCount>
                <descriptors>
                    <entry>
                        <key>File to Fetch</key>
                        <value>
                            <name>File to Fetch</name>
                        </value>
                    </entry>
                    <entry>
                        <key>Completion Strategy</key>
                        <value>
                            <name>Completion Strategy</name>
                        </value>
                    </entry>
                    <entry>
                        <key>Move Destination Directory</key>
                        <value>
                            <name>Move Destination Directory</name>
                        </value>
                    </entry>
                    <entry>
                        <key>Move Conflict Strategy</key>
                        <value>
                            <name>Move Conflict Strategy</name>
                        </value>
                    </entry>
                    <entry>
                        <key>Log level when file not found</key>
                        <value>
                            <name>Log level when file not found</name>
                        </value>
                    </entry>
                    <entry>
                        <key>Log level when permission denied</key>
                        <value>
                            <name>Log level when permission denied</name>
                        </value>
                    </entry>
                </descriptors>
                <executionNode>ALL</executionNode>
                <lossTolerant>false</lossTolerant>
                <penaltyDuration>30 sec</penaltyDuration>
                <properties>
                    <entry>
                        <key>File to Fetch</key>
                        <value>${absolute.path}/${filename}</value>
                    </entry>
                    <entry>
                        <key>Completion Strategy</key>
                        <value>Move File</value>
                    </entry>
                    <entry>
                        <key>Move Destination Directory</key>
                        <value>${absolute.path:replaceFirst('data', 'archive')}</value>
                    </entry>
                    <entry>
                        <key>Move Conflict Strategy</key>
                        <value>Replace File</value>
                    </entry>
                    <entry>
                        <key>Log level when file not found</key>
                        <value>ERROR</value>
                    </entry>
                    <entry>
                        <key>Log level when permission denied</key>
                        <value>ERROR</value>
                    </entry>
                </properties>
                <runDurationMillis>0</runDurationMillis>
                <schedulingPeriod>0 sec</schedulingPeriod>
                <schedulingStrategy>TIMER_DRIVEN</schedulingStrategy>
                <yieldDuration>1 sec</yieldDuration>
            </config>
            <executionNodeRestricted>false</executionNodeRestricted>
            <name>FetchFile</name>
            <relationships>
                <autoTerminate>true</autoTerminate>
                <name>failure</name>
            </relationships>
            <relationships>
                <autoTerminate>true</autoTerminate>
                <name>not.found</name>
            </relationships>
            <relationships>
                <autoTerminate>true</autoTerminate>
                <name>permission.denied</name>
            </relationships>
            <relationships>
                <autoTerminate>false</autoTerminate>
                <name>success</name>
            </relationships>
            <state>STOPPED</state>
            <style/>
            <type>org.apache.nifi.processors.standard.FetchFile</type>
        </processors>
        <processors>
            <id>588ca76d-3f94-3f35-0000-000000000000</id>
            <parentGroupId>2d7b7c0c-d83d-32c1-0000-000000000000</parentGroupId>
            <position>
                <x>1120.0</x>
                <y>464.0</y>
            </position>
            <bundle>
                <artifact>nifi-hadoop-nar</artifact>
                <group>org.apache.nifi</group>
                <version>1.11.4</version>
            </bundle>
            <config>
                <bulletinLevel>WARN</bulletinLevel>
                <comments></comments>
                <concurrentlySchedulableTaskCount>1</concurrentlySchedulableTaskCount>
                <descriptors>
                    <entry>
                        <key>Hadoop Configuration Resources</key>
                        <value>
                            <name>Hadoop Configuration Resources</name>
                        </value>
                    </entry>
                    <entry>
                        <key>kerberos-credentials-service</key>
                        <value>
                            <identifiesControllerService>org.apache.nifi.kerberos.KerberosCredentialsService</identifiesControllerService>
                            <name>kerberos-credentials-service</name>
                        </value>
                    </entry>
                    <entry>
                        <key>Kerberos Principal</key>
                        <value>
                            <name>Kerberos Principal</name>
                        </value>
                    </entry>
                    <entry>
                        <key>Kerberos Keytab</key>
                        <value>
                            <name>Kerberos Keytab</name>
                        </value>
                    </entry>
                    <entry>
                        <key>Kerberos Relogin Period</key>
                        <value>
                            <name>Kerberos Relogin Period</name>
                        </value>
                    </entry>
                    <entry>
                        <key>Additional Classpath Resources</key>
                        <value>